Version 4
SHEET 1 880 680
WIRE 64 48 64 16
WIRE 240 48 240 16
WIRE 272 48 240 48
WIRE 304 48 272 48
WIRE 144 96 128 96
WIRE 176 96 144 96
WIRE 208 96 176 96
WIRE 240 96 208 96
WIRE 272 144 240 144
WIRE 304 144 272 144
WIRE 64 192 64 144
WIRE 144 192 144 96
WIRE 144 192 64 192
WIRE 240 256 240 144
WIRE 240 256 160 256
WIRE 64 272 64 192
WIRE 64 272 32 272
WIRE 240 272 240 256
WIRE 416 272 416 208
WIRE 128 320 96 320
WIRE 160 320 160 256
WIRE 160 320 128 320
WIRE 176 320 160 320
WIRE 352 320 176 320
WIRE 64 368 32 368
WIRE 64 384 64 368
WIRE 240 416 240 368
WIRE 416 416 416 368
FLAG 240 416 0
FLAG 64 16 Vcc
FLAG 240 16 Vcc
FLAG 416 416 0
FLAG 64 464 0
FLAG -112 192 0
FLAG -112 112 Vcc
FLAG -192 192 0
FLAG -192 112 VREF
FLAG 416 128 VREF
SYMBOL pnp 176 144 M180
SYMATTR InstName Q2
SYMBOL pnp 128 144 R180
SYMATTR InstName Q1
SYMBOL npn 176 272 R0
SYMATTR InstName Q4
SYMBOL npn 352 272 R0
SYMATTR InstName Q5
SYMBOL npn 128 272 M0
SYMATTR InstName Q3
SYMBOL res 48 368 R0
SYMATTR InstName R1
SYMATTR Value 470
SYMBOL voltage -112 96 R0
WINDOW 123 0 0 Left 2
WINDOW 39 0 0 Left 2
SYMATTR InstName V1
SYMATTR Value +3.3V
SYMBOL npn 96 272 M0
SYMATTR InstName Q7
SYMBOL pnp 208 144 M180
SYMATTR InstName Q6
SYMBOL pnp 240 144 M180
SYMATTR InstName Q8
SYMBOL voltage -192 96 R0
WINDOW 123 0 0 Left 2
WINDOW 39 0 0 Left 2
SYMATTR InstName V2
SYMATTR Value 1V
SYMBOL res 400 112 R0
SYMATTR InstName R3
SYMATTR Value .001
TEXT 48 -88 Left 2 !.inc 6301.bjt
TEXT 200 -88 Left 2 !.op
TEXT 48 -120 Left 2 !.step temp 25 100 5
